*SPEF "ieee 1481-1999"
*DESIGN "user_module"
*DATE "11:11:11 Fri 11 11, 1111"
*VENDOR "OpenRCX"
*PROGRAM "Parallel Extraction"
*VERSION "1.0"
*DESIGN_FLOW "NAME_SCOPE LOCAL" "PIN_CAP NONE"
*DIVIDER /
*DELIMITER :
*BUS_DELIMITER []
*T_UNIT 1 NS
*C_UNIT 1 PF
*R_UNIT 1 OHM
*L_UNIT 1 HENRY

*NAME_MAP
*1 io_in[0]
*2 io_in[1]
*3 io_in[2]
*4 io_in[3]
*5 io_in[4]
*6 io_in[5]
*7 io_in[6]
*8 io_in[7]
*9 io_out[0]
*10 io_out[1]
*11 io_out[2]
*12 io_out[3]
*13 io_out[4]
*14 io_out[5]
*15 io_out[6]
*16 io_out[7]
*19 net1
*20 net2
*21 net3
*22 net4
*23 net5
*24 net6
*25 net7
*26 net8
*27 not1\.out
*28 not2\.out
*29 not3\.out
*30 not4\.out
*31 FILLER_0_109
*32 FILLER_0_113
*33 FILLER_0_121
*34 FILLER_0_125
*35 FILLER_0_137
*36 FILLER_0_141
*37 FILLER_0_153
*38 FILLER_0_165
*39 FILLER_0_169
*40 FILLER_0_18
*41 FILLER_0_181
*42 FILLER_0_193
*43 FILLER_0_197
*44 FILLER_0_209
*45 FILLER_0_221
*46 FILLER_0_225
*47 FILLER_0_237
*48 FILLER_0_249
*49 FILLER_0_253
*50 FILLER_0_26
*51 FILLER_0_265
*52 FILLER_0_277
*53 FILLER_0_281
*54 FILLER_0_29
*55 FILLER_0_293
*56 FILLER_0_305
*57 FILLER_0_309
*58 FILLER_0_321
*59 FILLER_0_333
*60 FILLER_0_337
*61 FILLER_0_349
*62 FILLER_0_361
*63 FILLER_0_365
*64 FILLER_0_377
*65 FILLER_0_389
*66 FILLER_0_403
*67 FILLER_0_41
*68 FILLER_0_415
*69 FILLER_0_419
*70 FILLER_0_421
*71 FILLER_0_433
*72 FILLER_0_445
*73 FILLER_0_449
*74 FILLER_0_461
*75 FILLER_0_473
*76 FILLER_0_477
*77 FILLER_0_489
*78 FILLER_0_500
*79 FILLER_0_505
*80 FILLER_0_513
*81 FILLER_0_53
*82 FILLER_0_57
*83 FILLER_0_6
*84 FILLER_0_69
*85 FILLER_0_81
*86 FILLER_0_85
*87 FILLER_0_97
*88 FILLER_10_109
*89 FILLER_10_121
*90 FILLER_10_133
*91 FILLER_10_139
*92 FILLER_10_141
*93 FILLER_10_15
*94 FILLER_10_153
*95 FILLER_10_165
*96 FILLER_10_177
*97 FILLER_10_189
*98 FILLER_10_195
*99 FILLER_10_197
*100 FILLER_10_209
*101 FILLER_10_221
*102 FILLER_10_233
*103 FILLER_10_245
*104 FILLER_10_251
*105 FILLER_10_253
*106 FILLER_10_257
*107 FILLER_10_262
*108 FILLER_10_27
*109 FILLER_10_274
*110 FILLER_10_286
*111 FILLER_10_29
*112 FILLER_10_298
*113 FILLER_10_3
*114 FILLER_10_306
*115 FILLER_10_309
*116 FILLER_10_321
*117 FILLER_10_333
*118 FILLER_10_345
*119 FILLER_10_357
*120 FILLER_10_363
*121 FILLER_10_365
*122 FILLER_10_377
*123 FILLER_10_389
*124 FILLER_10_401
*125 FILLER_10_41
*126 FILLER_10_413
*127 FILLER_10_419
*128 FILLER_10_421
*129 FILLER_10_433
*130 FILLER_10_445
*131 FILLER_10_457
*132 FILLER_10_469
*133 FILLER_10_475
*134 FILLER_10_477
*135 FILLER_10_489
*136 FILLER_10_501
*137 FILLER_10_513
*138 FILLER_10_53
*139 FILLER_10_65
*140 FILLER_10_77
*141 FILLER_10_83
*142 FILLER_10_85
*143 FILLER_10_97
*144 FILLER_11_105
*145 FILLER_11_111
*146 FILLER_11_113
*147 FILLER_11_125
*148 FILLER_11_137
*149 FILLER_11_149
*150 FILLER_11_15
*151 FILLER_11_161
*152 FILLER_11_167
*153 FILLER_11_169
*154 FILLER_11_181
*155 FILLER_11_193
*156 FILLER_11_205
*157 FILLER_11_217
*158 FILLER_11_223
*159 FILLER_11_225
*160 FILLER_11_237
*161 FILLER_11_249
*162 FILLER_11_261
*163 FILLER_11_27
*164 FILLER_11_273
*165 FILLER_11_279
*166 FILLER_11_281
*167 FILLER_11_293
*168 FILLER_11_3
*169 FILLER_11_305
*170 FILLER_11_317
*171 FILLER_11_329
*172 FILLER_11_335
*173 FILLER_11_337
*174 FILLER_11_349
*175 FILLER_11_361
*176 FILLER_11_373
*177 FILLER_11_385
*178 FILLER_11_39
*179 FILLER_11_391
*180 FILLER_11_393
*181 FILLER_11_405
*182 FILLER_11_417
*183 FILLER_11_429
*184 FILLER_11_441
*185 FILLER_11_447
*186 FILLER_11_449
*187 FILLER_11_461
*188 FILLER_11_473
*189 FILLER_11_485
*190 FILLER_11_497
*191 FILLER_11_503
*192 FILLER_11_505
*193 FILLER_11_51
*194 FILLER_11_513
*195 FILLER_11_55
*196 FILLER_11_57
*197 FILLER_11_69
*198 FILLER_11_81
*199 FILLER_11_93
*200 FILLER_12_109
*201 FILLER_12_121
*202 FILLER_12_133
*203 FILLER_12_139
*204 FILLER_12_141
*205 FILLER_12_15
*206 FILLER_12_153
*207 FILLER_12_165
*208 FILLER_12_177
*209 FILLER_12_189
*210 FILLER_12_195
*211 FILLER_12_197
*212 FILLER_12_209
*213 FILLER_12_221
*214 FILLER_12_233
*215 FILLER_12_245
*216 FILLER_12_251
*217 FILLER_12_253
*218 FILLER_12_265
*219 FILLER_12_27
*220 FILLER_12_277
*221 FILLER_12_289
*222 FILLER_12_29
*223 FILLER_12_3
*224 FILLER_12_301
*225 FILLER_12_307
*226 FILLER_12_309
*227 FILLER_12_321
*228 FILLER_12_333
*229 FILLER_12_345
*230 FILLER_12_357
*231 FILLER_12_363
*232 FILLER_12_365
*233 FILLER_12_377
*234 FILLER_12_389
*235 FILLER_12_401
*236 FILLER_12_41
*237 FILLER_12_413
*238 FILLER_12_419
*239 FILLER_12_421
*240 FILLER_12_433
*241 FILLER_12_445
*242 FILLER_12_457
*243 FILLER_12_469
*244 FILLER_12_475
*245 FILLER_12_477
*246 FILLER_12_489
*247 FILLER_12_501
*248 FILLER_12_513
*249 FILLER_12_53
*250 FILLER_12_65
*251 FILLER_12_77
*252 FILLER_12_83
*253 FILLER_12_85
*254 FILLER_12_97
*255 FILLER_13_105
*256 FILLER_13_111
*257 FILLER_13_113
*258 FILLER_13_125
*259 FILLER_13_137
*260 FILLER_13_149
*261 FILLER_13_15
*262 FILLER_13_161
*263 FILLER_13_167
*264 FILLER_13_169
*265 FILLER_13_181
*266 FILLER_13_193
*267 FILLER_13_205
*268 FILLER_13_217
*269 FILLER_13_223
*270 FILLER_13_225
*271 FILLER_13_237
*272 FILLER_13_249
*273 FILLER_13_261
*274 FILLER_13_27
*275 FILLER_13_273
*276 FILLER_13_279
*277 FILLER_13_281
*278 FILLER_13_293
*279 FILLER_13_3
*280 FILLER_13_305
*281 FILLER_13_317
*282 FILLER_13_329
*283 FILLER_13_335
*284 FILLER_13_337
*285 FILLER_13_349
*286 FILLER_13_361
*287 FILLER_13_373
*288 FILLER_13_385
*289 FILLER_13_39
*290 FILLER_13_391
*291 FILLER_13_393
*292 FILLER_13_405
*293 FILLER_13_417
*294 FILLER_13_429
*295 FILLER_13_441
*296 FILLER_13_447
*297 FILLER_13_449
*298 FILLER_13_461
*299 FILLER_13_473
*300 FILLER_13_485
*301 FILLER_13_497
*302 FILLER_13_503
*303 FILLER_13_505
*304 FILLER_13_51
*305 FILLER_13_513
*306 FILLER_13_55
*307 FILLER_13_57
*308 FILLER_13_69
*309 FILLER_13_81
*310 FILLER_13_93
*311 FILLER_14_109
*312 FILLER_14_121
*313 FILLER_14_133
*314 FILLER_14_139
*315 FILLER_14_141
*316 FILLER_14_15
*317 FILLER_14_153
*318 FILLER_14_165
*319 FILLER_14_177
*320 FILLER_14_189
*321 FILLER_14_195
*322 FILLER_14_197
*323 FILLER_14_209
*324 FILLER_14_221
*325 FILLER_14_233
*326 FILLER_14_245
*327 FILLER_14_251
*328 FILLER_14_253
*329 FILLER_14_265
*330 FILLER_14_27
*331 FILLER_14_277
*332 FILLER_14_289
*333 FILLER_14_29
*334 FILLER_14_3
*335 FILLER_14_301
*336 FILLER_14_307
*337 FILLER_14_309
*338 FILLER_14_321
*339 FILLER_14_333
*340 FILLER_14_345
*341 FILLER_14_357
*342 FILLER_14_363
*343 FILLER_14_365
*344 FILLER_14_377
*345 FILLER_14_389
*346 FILLER_14_401
*347 FILLER_14_41
*348 FILLER_14_413
*349 FILLER_14_419
*350 FILLER_14_421
*351 FILLER_14_433
*352 FILLER_14_445
*353 FILLER_14_457
*354 FILLER_14_469
*355 FILLER_14_475
*356 FILLER_14_477
*357 FILLER_14_489
*358 FILLER_14_501
*359 FILLER_14_513
*360 FILLER_14_53
*361 FILLER_14_65
*362 FILLER_14_77
*363 FILLER_14_83
*364 FILLER_14_85
*365 FILLER_14_97
*366 FILLER_15_105
*367 FILLER_15_111
*368 FILLER_15_113
*369 FILLER_15_125
*370 FILLER_15_137
*371 FILLER_15_149
*372 FILLER_15_15
*373 FILLER_15_161
*374 FILLER_15_167
*375 FILLER_15_169
*376 FILLER_15_181
*377 FILLER_15_193
*378 FILLER_15_205
*379 FILLER_15_217
*380 FILLER_15_223
*381 FILLER_15_225
*382 FILLER_15_237
*383 FILLER_15_249
*384 FILLER_15_261
*385 FILLER_15_27
*386 FILLER_15_273
*387 FILLER_15_279
*388 FILLER_15_281
*389 FILLER_15_293
*390 FILLER_15_3
*391 FILLER_15_305
*392 FILLER_15_317
*393 FILLER_15_329
*394 FILLER_15_335
*395 FILLER_15_337
*396 FILLER_15_349
*397 FILLER_15_361
*398 FILLER_15_373
*399 FILLER_15_385
*400 FILLER_15_39
*401 FILLER_15_391
*402 FILLER_15_393
*403 FILLER_15_405
*404 FILLER_15_417
*405 FILLER_15_429
*406 FILLER_15_441
*407 FILLER_15_447
*408 FILLER_15_449
*409 FILLER_15_461
*410 FILLER_15_473
*411 FILLER_15_485
*412 FILLER_15_497
*413 FILLER_15_503
*414 FILLER_15_505
*415 FILLER_15_51
*416 FILLER_15_513
*417 FILLER_15_55
*418 FILLER_15_57
*419 FILLER_15_69
*420 FILLER_15_81
*421 FILLER_15_93
*422 FILLER_16_109
*423 FILLER_16_121
*424 FILLER_16_133
*425 FILLER_16_139
*426 FILLER_16_141
*427 FILLER_16_15
*428 FILLER_16_153
*429 FILLER_16_165
*430 FILLER_16_177
*431 FILLER_16_189
*432 FILLER_16_195
*433 FILLER_16_197
*434 FILLER_16_209
*435 FILLER_16_221
*436 FILLER_16_233
*437 FILLER_16_245
*438 FILLER_16_251
*439 FILLER_16_253
*440 FILLER_16_265
*441 FILLER_16_27
*442 FILLER_16_277
*443 FILLER_16_289
*444 FILLER_16_29
*445 FILLER_16_3
*446 FILLER_16_301
*447 FILLER_16_307
*448 FILLER_16_309
*449 FILLER_16_321
*450 FILLER_16_333
*451 FILLER_16_345
*452 FILLER_16_357
*453 FILLER_16_363
*454 FILLER_16_365
*455 FILLER_16_377
*456 FILLER_16_389
*457 FILLER_16_401
*458 FILLER_16_41
*459 FILLER_16_413
*460 FILLER_16_419
*461 FILLER_16_421
*462 FILLER_16_433
*463 FILLER_16_445
*464 FILLER_16_457
*465 FILLER_16_469
*466 FILLER_16_475
*467 FILLER_16_477
*468 FILLER_16_489
*469 FILLER_16_501
*470 FILLER_16_513
*471 FILLER_16_53
*472 FILLER_16_65
*473 FILLER_16_77
*474 FILLER_16_83
*475 FILLER_16_85
*476 FILLER_16_97
*477 FILLER_17_105
*478 FILLER_17_111
*479 FILLER_17_113
*480 FILLER_17_125
*481 FILLER_17_137
*482 FILLER_17_149
*483 FILLER_17_15
*484 FILLER_17_161
*485 FILLER_17_167
*486 FILLER_17_169
*487 FILLER_17_181
*488 FILLER_17_193
*489 FILLER_17_205
*490 FILLER_17_217
*491 FILLER_17_223
*492 FILLER_17_225
*493 FILLER_17_237
*494 FILLER_17_249
*495 FILLER_17_261
*496 FILLER_17_27
*497 FILLER_17_273
*498 FILLER_17_279
*499 FILLER_17_281
*500 FILLER_17_293
*501 FILLER_17_3
*502 FILLER_17_305
*503 FILLER_17_317
*504 FILLER_17_329
*505 FILLER_17_335
*506 FILLER_17_337
*507 FILLER_17_349
*508 FILLER_17_361
*509 FILLER_17_373
*510 FILLER_17_385
*511 FILLER_17_39
*512 FILLER_17_391
*513 FILLER_17_393
*514 FILLER_17_405
*515 FILLER_17_417
*516 FILLER_17_429
*517 FILLER_17_441
*518 FILLER_17_447
*519 FILLER_17_449
*520 FILLER_17_461
*521 FILLER_17_473
*522 FILLER_17_485
*523 FILLER_17_497
*524 FILLER_17_503
*525 FILLER_17_505
*526 FILLER_17_51
*527 FILLER_17_513
*528 FILLER_17_55
*529 FILLER_17_57
*530 FILLER_17_69
*531 FILLER_17_81
*532 FILLER_17_93
*533 FILLER_18_109
*534 FILLER_18_121
*535 FILLER_18_133
*536 FILLER_18_139
*537 FILLER_18_141
*538 FILLER_18_15
*539 FILLER_18_153
*540 FILLER_18_165
*541 FILLER_18_177
*542 FILLER_18_189
*543 FILLER_18_195
*544 FILLER_18_197
*545 FILLER_18_209
*546 FILLER_18_221
*547 FILLER_18_233
*548 FILLER_18_245
*549 FILLER_18_251
*550 FILLER_18_253
*551 FILLER_18_265
*552 FILLER_18_27
*553 FILLER_18_277
*554 FILLER_18_289
*555 FILLER_18_29
*556 FILLER_18_3
*557 FILLER_18_301
*558 FILLER_18_307
*559 FILLER_18_309
*560 FILLER_18_321
*561 FILLER_18_333
*562 FILLER_18_345
*563 FILLER_18_357
*564 FILLER_18_363
*565 FILLER_18_365
*566 FILLER_18_377
*567 FILLER_18_389
*568 FILLER_18_401
*569 FILLER_18_41
*570 FILLER_18_413
*571 FILLER_18_419
*572 FILLER_18_421
*573 FILLER_18_433
*574 FILLER_18_445
*575 FILLER_18_457
*576 FILLER_18_469
*577 FILLER_18_475
*578 FILLER_18_477
*579 FILLER_18_489
*580 FILLER_18_501
*581 FILLER_18_513
*582 FILLER_18_53
*583 FILLER_18_65
*584 FILLER_18_77
*585 FILLER_18_83
*586 FILLER_18_85
*587 FILLER_18_97
*588 FILLER_19_105
*589 FILLER_19_111
*590 FILLER_19_113
*591 FILLER_19_125
*592 FILLER_19_137
*593 FILLER_19_149
*594 FILLER_19_15
*595 FILLER_19_161
*596 FILLER_19_167
*597 FILLER_19_169
*598 FILLER_19_181
*599 FILLER_19_193
*600 FILLER_19_205
*601 FILLER_19_217
*602 FILLER_19_223
*603 FILLER_19_225
*604 FILLER_19_237
*605 FILLER_19_249
*606 FILLER_19_261
*607 FILLER_19_27
*608 FILLER_19_273
*609 FILLER_19_279
*610 FILLER_19_281
*611 FILLER_19_293
*612 FILLER_19_3
*613 FILLER_19_305
*614 FILLER_19_317
*615 FILLER_19_329
*616 FILLER_19_335
*617 FILLER_19_337
*618 FILLER_19_349
*619 FILLER_19_361
*620 FILLER_19_373
*621 FILLER_19_385
*622 FILLER_19_39
*623 FILLER_19_391
*624 FILLER_19_393
*625 FILLER_19_405
*626 FILLER_19_417
*627 FILLER_19_429
*628 FILLER_19_441
*629 FILLER_19_447
*630 FILLER_19_449
*631 FILLER_19_461
*632 FILLER_19_473
*633 FILLER_19_485
*634 FILLER_19_497
*635 FILLER_19_503
*636 FILLER_19_505
*637 FILLER_19_51
*638 FILLER_19_513
*639 FILLER_19_55
*640 FILLER_19_57
*641 FILLER_19_69
*642 FILLER_19_81
*643 FILLER_19_93
*644 FILLER_1_105
*645 FILLER_1_111
*646 FILLER_1_113
*647 FILLER_1_125
*648 FILLER_1_137
*649 FILLER_1_149
*650 FILLER_1_15
*651 FILLER_1_161
*652 FILLER_1_167
*653 FILLER_1_169
*654 FILLER_1_181
*655 FILLER_1_193
*656 FILLER_1_205
*657 FILLER_1_217
*658 FILLER_1_223
*659 FILLER_1_225
*660 FILLER_1_237
*661 FILLER_1_249
*662 FILLER_1_261
*663 FILLER_1_27
*664 FILLER_1_273
*665 FILLER_1_279
*666 FILLER_1_281
*667 FILLER_1_293
*668 FILLER_1_3
*669 FILLER_1_305
*670 FILLER_1_317
*671 FILLER_1_329
*672 FILLER_1_335
*673 FILLER_1_337
*674 FILLER_1_349
*675 FILLER_1_361
*676 FILLER_1_373
*677 FILLER_1_385
*678 FILLER_1_39
*679 FILLER_1_391
*680 FILLER_1_393
*681 FILLER_1_405
*682 FILLER_1_417
*683 FILLER_1_429
*684 FILLER_1_441
*685 FILLER_1_447
*686 FILLER_1_449
*687 FILLER_1_461
*688 FILLER_1_473
*689 FILLER_1_485
*690 FILLER_1_497
*691 FILLER_1_503
*692 FILLER_1_505
*693 FILLER_1_51
*694 FILLER_1_513
*695 FILLER_1_55
*696 FILLER_1_57
*697 FILLER_1_69
*698 FILLER_1_81
*699 FILLER_1_93
*700 FILLER_20_109
*701 FILLER_20_121
*702 FILLER_20_133
*703 FILLER_20_139
*704 FILLER_20_141
*705 FILLER_20_15
*706 FILLER_20_153
*707 FILLER_20_165
*708 FILLER_20_177
*709 FILLER_20_189
*710 FILLER_20_195
*711 FILLER_20_197
*712 FILLER_20_209
*713 FILLER_20_221
*714 FILLER_20_233
*715 FILLER_20_245
*716 FILLER_20_251
*717 FILLER_20_253
*718 FILLER_20_265
*719 FILLER_20_27
*720 FILLER_20_277
*721 FILLER_20_289
*722 FILLER_20_29
*723 FILLER_20_3
*724 FILLER_20_301
*725 FILLER_20_307
*726 FILLER_20_309
*727 FILLER_20_321
*728 FILLER_20_333
*729 FILLER_20_345
*730 FILLER_20_357
*731 FILLER_20_363
*732 FILLER_20_365
*733 FILLER_20_377
*734 FILLER_20_389
*735 FILLER_20_401
*736 FILLER_20_41
*737 FILLER_20_413
*738 FILLER_20_419
*739 FILLER_20_421
*740 FILLER_20_433
*741 FILLER_20_445
*742 FILLER_20_457
*743 FILLER_20_469
*744 FILLER_20_475
*745 FILLER_20_477
*746 FILLER_20_489
*747 FILLER_20_501
*748 FILLER_20_513
*749 FILLER_20_53
*750 FILLER_20_65
*751 FILLER_20_77
*752 FILLER_20_83
*753 FILLER_20_85
*754 FILLER_20_97
*755 FILLER_21_105
*756 FILLER_21_111
*757 FILLER_21_113
*758 FILLER_21_125
*759 FILLER_21_137
*760 FILLER_21_149
*761 FILLER_21_15
*762 FILLER_21_161
*763 FILLER_21_167
*764 FILLER_21_169
*765 FILLER_21_181
*766 FILLER_21_193
*767 FILLER_21_205
*768 FILLER_21_217
*769 FILLER_21_223
*770 FILLER_21_225
*771 FILLER_21_237
*772 FILLER_21_249
*773 FILLER_21_261
*774 FILLER_21_27
*775 FILLER_21_273
*776 FILLER_21_279
*777 FILLER_21_281
*778 FILLER_21_293
*779 FILLER_21_3
*780 FILLER_21_305
*781 FILLER_21_317
*782 FILLER_21_329
*783 FILLER_21_335
*784 FILLER_21_337
*785 FILLER_21_349
*786 FILLER_21_361
*787 FILLER_21_373
*788 FILLER_21_385
*789 FILLER_21_39
*790 FILLER_21_391
*791 FILLER_21_393
*792 FILLER_21_405
*793 FILLER_21_417
*794 FILLER_21_429
*795 FILLER_21_441
*796 FILLER_21_447
*797 FILLER_21_449
*798 FILLER_21_461
*799 FILLER_21_473
*800 FILLER_21_485
*801 FILLER_21_497
*802 FILLER_21_503
*803 FILLER_21_505
*804 FILLER_21_51
*805 FILLER_21_513
*806 FILLER_21_55
*807 FILLER_21_57
*808 FILLER_21_69
*809 FILLER_21_81
*810 FILLER_21_93
*811 FILLER_22_109
*812 FILLER_22_121
*813 FILLER_22_133
*814 FILLER_22_139
*815 FILLER_22_141
*816 FILLER_22_15
*817 FILLER_22_153
*818 FILLER_22_165
*819 FILLER_22_177
*820 FILLER_22_189
*821 FILLER_22_195
*822 FILLER_22_197
*823 FILLER_22_209
*824 FILLER_22_221
*825 FILLER_22_233
*826 FILLER_22_245
*827 FILLER_22_251
*828 FILLER_22_253
*829 FILLER_22_265
*830 FILLER_22_27
*831 FILLER_22_277
*832 FILLER_22_289
*833 FILLER_22_29
*834 FILLER_22_3
*835 FILLER_22_301
*836 FILLER_22_307
*837 FILLER_22_309
*838 FILLER_22_321
*839 FILLER_22_333
*840 FILLER_22_345
*841 FILLER_22_357
*842 FILLER_22_363
*843 FILLER_22_365
*844 FILLER_22_377
*845 FILLER_22_389
*846 FILLER_22_401
*847 FILLER_22_41
*848 FILLER_22_413
*849 FILLER_22_419
*850 FILLER_22_421
*851 FILLER_22_433
*852 FILLER_22_445
*853 FILLER_22_457
*854 FILLER_22_469
*855 FILLER_22_475
*856 FILLER_22_477
*857 FILLER_22_489
*858 FILLER_22_501
*859 FILLER_22_513
*860 FILLER_22_53
*861 FILLER_22_65
*862 FILLER_22_77
*863 FILLER_22_83
*864 FILLER_22_85
*865 FILLER_22_97
*866 FILLER_23_105
*867 FILLER_23_111
*868 FILLER_23_113
*869 FILLER_23_125
*870 FILLER_23_137
*871 FILLER_23_149
*872 FILLER_23_15
*873 FILLER_23_161
*874 FILLER_23_167
*875 FILLER_23_169
*876 FILLER_23_181
*877 FILLER_23_193
*878 FILLER_23_205
*879 FILLER_23_217
*880 FILLER_23_223
*881 FILLER_23_225
*882 FILLER_23_237
*883 FILLER_23_249
*884 FILLER_23_261
*885 FILLER_23_27
*886 FILLER_23_273
*887 FILLER_23_279
*888 FILLER_23_281
*889 FILLER_23_293
*890 FILLER_23_3
*891 FILLER_23_305
*892 FILLER_23_317
*893 FILLER_23_329
*894 FILLER_23_335
*895 FILLER_23_337
*896 FILLER_23_349
*897 FILLER_23_361
*898 FILLER_23_373
*899 FILLER_23_385
*900 FILLER_23_39
*901 FILLER_23_391
*902 FILLER_23_393
*903 FILLER_23_405
*904 FILLER_23_417
*905 FILLER_23_429
*906 FILLER_23_441
*907 FILLER_23_447
*908 FILLER_23_449
*909 FILLER_23_461
*910 FILLER_23_473
*911 FILLER_23_485
*912 FILLER_23_497
*913 FILLER_23_503
*914 FILLER_23_505
*915 FILLER_23_51
*916 FILLER_23_513
*917 FILLER_23_55
*918 FILLER_23_57
*919 FILLER_23_69
*920 FILLER_23_81
*921 FILLER_23_93
*922 FILLER_24_109
*923 FILLER_24_121
*924 FILLER_24_133
*925 FILLER_24_139
*926 FILLER_24_141
*927 FILLER_24_15
*928 FILLER_24_153
*929 FILLER_24_165
*930 FILLER_24_177
*931 FILLER_24_189
*932 FILLER_24_195
*933 FILLER_24_197
*934 FILLER_24_209
*935 FILLER_24_221
*936 FILLER_24_233
*937 FILLER_24_245
*938 FILLER_24_251
*939 FILLER_24_253
*940 FILLER_24_265
*941 FILLER_24_27
*942 FILLER_24_277
*943 FILLER_24_289
*944 FILLER_24_29
*945 FILLER_24_3
*946 FILLER_24_301
*947 FILLER_24_307
*948 FILLER_24_309
*949 FILLER_24_321
*950 FILLER_24_333
*951 FILLER_24_345
*952 FILLER_24_357
*953 FILLER_24_363
*954 FILLER_24_365
*955 FILLER_24_377
*956 FILLER_24_389
*957 FILLER_24_401
*958 FILLER_24_41
*959 FILLER_24_413
*960 FILLER_24_419
*961 FILLER_24_421
*962 FILLER_24_433
*963 FILLER_24_445
*964 FILLER_24_457
*965 FILLER_24_469
*966 FILLER_24_475
*967 FILLER_24_477
*968 FILLER_24_489
*969 FILLER_24_501
*970 FILLER_24_513
*971 FILLER_24_53
*972 FILLER_24_65
*973 FILLER_24_77
*974 FILLER_24_83
*975 FILLER_24_85
*976 FILLER_24_97
*977 FILLER_25_105
*978 FILLER_25_111
*979 FILLER_25_113
*980 FILLER_25_125
*981 FILLER_25_137
*982 FILLER_25_149
*983 FILLER_25_15
*984 FILLER_25_161
*985 FILLER_25_167
*986 FILLER_25_169
*987 FILLER_25_181
*988 FILLER_25_193
*989 FILLER_25_205
*990 FILLER_25_217
*991 FILLER_25_223
*992 FILLER_25_225
*993 FILLER_25_237
*994 FILLER_25_249
*995 FILLER_25_261
*996 FILLER_25_27
*997 FILLER_25_273
*998 FILLER_25_279
*999 FILLER_25_281
*1000 FILLER_25_293
*1001 FILLER_25_3
*1002 FILLER_25_305
*1003 FILLER_25_317
*1004 FILLER_25_329
*1005 FILLER_25_335
*1006 FILLER_25_337
*1007 FILLER_25_349
*1008 FILLER_25_361
*1009 FILLER_25_373
*1010 FILLER_25_385
*1011 FILLER_25_39
*1012 FILLER_25_391
*1013 FILLER_25_393
*1014 FILLER_25_405
*1015 FILLER_25_417
*1016 FILLER_25_429
*1017 FILLER_25_441
*1018 FILLER_25_447
*1019 FILLER_25_449
*1020 FILLER_25_461
*1021 FILLER_25_473
*1022 FILLER_25_485
*1023 FILLER_25_497
*1024 FILLER_25_503
*1025 FILLER_25_505
*1026 FILLER_25_51
*1027 FILLER_25_513
*1028 FILLER_25_55
*1029 FILLER_25_57
*1030 FILLER_25_69
*1031 FILLER_25_81
*1032 FILLER_25_93
*1033 FILLER_26_109
*1034 FILLER_26_121
*1035 FILLER_26_133
*1036 FILLER_26_139
*1037 FILLER_26_141
*1038 FILLER_26_15
*1039 FILLER_26_153
*1040 FILLER_26_165
*1041 FILLER_26_177
*1042 FILLER_26_189
*1043 FILLER_26_195
*1044 FILLER_26_197
*1045 FILLER_26_209
*1046 FILLER_26_221
*1047 FILLER_26_233
*1048 FILLER_26_245
*1049 FILLER_26_251
*1050 FILLER_26_253
*1051 FILLER_26_265
*1052 FILLER_26_27
*1053 FILLER_26_277
*1054 FILLER_26_289
*1055 FILLER_26_29
*1056 FILLER_26_3
*1057 FILLER_26_301
*1058 FILLER_26_307
*1059 FILLER_26_309
*1060 FILLER_26_321
*1061 FILLER_26_333
*1062 FILLER_26_345
*1063 FILLER_26_357
*1064 FILLER_26_363
*1065 FILLER_26_365
*1066 FILLER_26_377
*1067 FILLER_26_389
*1068 FILLER_26_401
*1069 FILLER_26_41
*1070 FILLER_26_413
*1071 FILLER_26_419
*1072 FILLER_26_421
*1073 FILLER_26_433
*1074 FILLER_26_445
*1075 FILLER_26_457
*1076 FILLER_26_469
*1077 FILLER_26_475
*1078 FILLER_26_477
*1079 FILLER_26_489
*1080 FILLER_26_501
*1081 FILLER_26_513
*1082 FILLER_26_53
*1083 FILLER_26_65
*1084 FILLER_26_77
*1085 FILLER_26_83
*1086 FILLER_26_85
*1087 FILLER_26_97
*1088 FILLER_27_105
*1089 FILLER_27_111
*1090 FILLER_27_113
*1091 FILLER_27_125
*1092 FILLER_27_137
*1093 FILLER_27_149
*1094 FILLER_27_15
*1095 FILLER_27_161
*1096 FILLER_27_167
*1097 FILLER_27_169
*1098 FILLER_27_181
*1099 FILLER_27_193
*1100 FILLER_27_205
*1101 FILLER_27_217
*1102 FILLER_27_223
*1103 FILLER_27_225
*1104 FILLER_27_237
*1105 FILLER_27_249
*1106 FILLER_27_261
*1107 FILLER_27_27
*1108 FILLER_27_273
*1109 FILLER_27_279
*1110 FILLER_27_281
*1111 FILLER_27_293
*1112 FILLER_27_3
*1113 FILLER_27_305
*1114 FILLER_27_317
*1115 FILLER_27_329
*1116 FILLER_27_335
*1117 FILLER_27_337
*1118 FILLER_27_349
*1119 FILLER_27_361
*1120 FILLER_27_373
*1121 FILLER_27_385
*1122 FILLER_27_39
*1123 FILLER_27_391
*1124 FILLER_27_393
*1125 FILLER_27_405
*1126 FILLER_27_417
*1127 FILLER_27_429
*1128 FILLER_27_441
*1129 FILLER_27_447
*1130 FILLER_27_449
*1131 FILLER_27_461
*1132 FILLER_27_473
*1133 FILLER_27_485
*1134 FILLER_27_497
*1135 FILLER_27_503
*1136 FILLER_27_505
*1137 FILLER_27_51
*1138 FILLER_27_513
*1139 FILLER_27_55
*1140 FILLER_27_57
*1141 FILLER_27_69
*1142 FILLER_27_81
*1143 FILLER_27_93
*1144 FILLER_28_109
*1145 FILLER_28_121
*1146 FILLER_28_133
*1147 FILLER_28_139
*1148 FILLER_28_141
*1149 FILLER_28_15
*1150 FILLER_28_153
*1151 FILLER_28_165
*1152 FILLER_28_177
*1153 FILLER_28_189
*1154 FILLER_28_195
*1155 FILLER_28_197
*1156 FILLER_28_209
*1157 FILLER_28_221
*1158 FILLER_28_233
*1159 FILLER_28_245
*1160 FILLER_28_251
*1161 FILLER_28_253
*1162 FILLER_28_265
*1163 FILLER_28_27
*1164 FILLER_28_277
*1165 FILLER_28_289
*1166 FILLER_28_29
*1167 FILLER_28_3
*1168 FILLER_28_301
*1169 FILLER_28_307
*1170 FILLER_28_309
*1171 FILLER_28_321
*1172 FILLER_28_333
*1173 FILLER_28_345
*1174 FILLER_28_357
*1175 FILLER_28_363
*1176 FILLER_28_365
*1177 FILLER_28_377
*1178 FILLER_28_389
*1179 FILLER_28_401
*1180 FILLER_28_41
*1181 FILLER_28_413
*1182 FILLER_28_419
*1183 FILLER_28_421
*1184 FILLER_28_433
*1185 FILLER_28_445
*1186 FILLER_28_457
*1187 FILLER_28_469
*1188 FILLER_28_475
*1189 FILLER_28_477
*1190 FILLER_28_489
*1191 FILLER_28_501
*1192 FILLER_28_513
*1193 FILLER_28_53
*1194 FILLER_28_65
*1195 FILLER_28_77
*1196 FILLER_28_83
*1197 FILLER_28_85
*1198 FILLER_28_97
*1199 FILLER_29_105
*1200 FILLER_29_111
*1201 FILLER_29_113
*1202 FILLER_29_125
*1203 FILLER_29_137
*1204 FILLER_29_149
*1205 FILLER_29_15
*1206 FILLER_29_161
*1207 FILLER_29_167
*1208 FILLER_29_169
*1209 FILLER_29_181
*1210 FILLER_29_193
*1211 FILLER_29_205
*1212 FILLER_29_217
*1213 FILLER_29_223
*1214 FILLER_29_225
*1215 FILLER_29_237
*1216 FILLER_29_249
*1217 FILLER_29_261
*1218 FILLER_29_27
*1219 FILLER_29_273
*1220 FILLER_29_279
*1221 FILLER_29_281
*1222 FILLER_29_293
*1223 FILLER_29_3
*1224 FILLER_29_305
*1225 FILLER_29_317
*1226 FILLER_29_329
*1227 FILLER_29_335
*1228 FILLER_29_337
*1229 FILLER_29_349
*1230 FILLER_29_361
*1231 FILLER_29_373
*1232 FILLER_29_385
*1233 FILLER_29_39
*1234 FILLER_29_391
*1235 FILLER_29_393
*1236 FILLER_29_405
*1237 FILLER_29_417
*1238 FILLER_29_429
*1239 FILLER_29_441
*1240 FILLER_29_447
*1241 FILLER_29_449
*1242 FILLER_29_461
*1243 FILLER_29_473
*1244 FILLER_29_485
*1245 FILLER_29_497
*1246 FILLER_29_503
*1247 FILLER_29_505
*1248 FILLER_29_51
*1249 FILLER_29_513
*1250 FILLER_29_55
*1251 FILLER_29_57
*1252 FILLER_29_69
*1253 FILLER_29_81
*1254 FILLER_29_93
*1255 FILLER_2_109
*1256 FILLER_2_121
*1257 FILLER_2_133
*1258 FILLER_2_139
*1259 FILLER_2_141
*1260 FILLER_2_15
*1261 FILLER_2_153
*1262 FILLER_2_165
*1263 FILLER_2_177
*1264 FILLER_2_189
*1265 FILLER_2_195
*1266 FILLER_2_197
*1267 FILLER_2_209
*1268 FILLER_2_221
*1269 FILLER_2_233
*1270 FILLER_2_245
*1271 FILLER_2_251
*1272 FILLER_2_253
*1273 FILLER_2_265
*1274 FILLER_2_27
*1275 FILLER_2_277
*1276 FILLER_2_289
*1277 FILLER_2_29
*1278 FILLER_2_3
*1279 FILLER_2_301
*1280 FILLER_2_307
*1281 FILLER_2_309
*1282 FILLER_2_321
*1283 FILLER_2_333
*1284 FILLER_2_345
*1285 FILLER_2_357
*1286 FILLER_2_363
*1287 FILLER_2_365
*1288 FILLER_2_377
*1289 FILLER_2_389
*1290 FILLER_2_401
*1291 FILLER_2_41
*1292 FILLER_2_413
*1293 FILLER_2_419
*1294 FILLER_2_421
*1295 FILLER_2_433
*1296 FILLER_2_445
*1297 FILLER_2_457
*1298 FILLER_2_469
*1299 FILLER_2_475
*1300 FILLER_2_477
*1301 FILLER_2_489
*1302 FILLER_2_501
*1303 FILLER_2_513
*1304 FILLER_2_53
*1305 FILLER_2_65
*1306 FILLER_2_77
*1307 FILLER_2_83
*1308 FILLER_2_85
*1309 FILLER_2_97
*1310 FILLER_30_109
*1311 FILLER_30_121
*1312 FILLER_30_133
*1313 FILLER_30_139
*1314 FILLER_30_141
*1315 FILLER_30_15
*1316 FILLER_30_153
*1317 FILLER_30_165
*1318 FILLER_30_177
*1319 FILLER_30_189
*1320 FILLER_30_195
*1321 FILLER_30_197
*1322 FILLER_30_209
*1323 FILLER_30_221
*1324 FILLER_30_233
*1325 FILLER_30_245
*1326 FILLER_30_251
*1327 FILLER_30_253
*1328 FILLER_30_265
*1329 FILLER_30_27
*1330 FILLER_30_277
*1331 FILLER_30_289
*1332 FILLER_30_29
*1333 FILLER_30_3
*1334 FILLER_30_301
*1335 FILLER_30_307
*1336 FILLER_30_309
*1337 FILLER_30_321
*1338 FILLER_30_333
*1339 FILLER_30_345
*1340 FILLER_30_357
*1341 FILLER_30_363
*1342 FILLER_30_365
*1343 FILLER_30_377
*1344 FILLER_30_389
*1345 FILLER_30_401
*1346 FILLER_30_41
*1347 FILLER_30_413
*1348 FILLER_30_419
*1349 FILLER_30_421
*1350 FILLER_30_433
*1351 FILLER_30_445
*1352 FILLER_30_457
*1353 FILLER_30_469
*1354 FILLER_30_475
*1355 FILLER_30_477
*1356 FILLER_30_489
*1357 FILLER_30_501
*1358 FILLER_30_513
*1359 FILLER_30_53
*1360 FILLER_30_65
*1361 FILLER_30_77
*1362 FILLER_30_83
*1363 FILLER_30_85
*1364 FILLER_30_97
*1365 FILLER_31_105
*1366 FILLER_31_111
*1367 FILLER_31_113
*1368 FILLER_31_125
*1369 FILLER_31_137
*1370 FILLER_31_149
*1371 FILLER_31_15
*1372 FILLER_31_161
*1373 FILLER_31_167
*1374 FILLER_31_169
*1375 FILLER_31_181
*1376 FILLER_31_193
*1377 FILLER_31_205
*1378 FILLER_31_217
*1379 FILLER_31_223
*1380 FILLER_31_225
*1381 FILLER_31_237
*1382 FILLER_31_249
*1383 FILLER_31_261
*1384 FILLER_31_27
*1385 FILLER_31_273
*1386 FILLER_31_279
*1387 FILLER_31_281
*1388 FILLER_31_293
*1389 FILLER_31_3
*1390 FILLER_31_305
*1391 FILLER_31_317
*1392 FILLER_31_329
*1393 FILLER_31_335
*1394 FILLER_31_337
*1395 FILLER_31_349
*1396 FILLER_31_361
*1397 FILLER_31_373
*1398 FILLER_31_385
*1399 FILLER_31_39
*1400 FILLER_31_391
*1401 FILLER_31_393
*1402 FILLER_31_405
*1403 FILLER_31_417
*1404 FILLER_31_429
*1405 FILLER_31_441
*1406 FILLER_31_447
*1407 FILLER_31_449
*1408 FILLER_31_461
*1409 FILLER_31_473
*1410 FILLER_31_485
*1411 FILLER_31_497
*1412 FILLER_31_503
*1413 FILLER_31_505
*1414 FILLER_31_51
*1415 FILLER_31_513
*1416 FILLER_31_55
*1417 FILLER_31_57
*1418 FILLER_31_69
*1419 FILLER_31_81
*1420 FILLER_31_93
*1421 FILLER_32_109
*1422 FILLER_32_121
*1423 FILLER_32_133
*1424 FILLER_32_139
*1425 FILLER_32_141
*1426 FILLER_32_15
*1427 FILLER_32_153
*1428 FILLER_32_165
*1429 FILLER_32_177
*1430 FILLER_32_189
*1431 FILLER_32_195
*1432 FILLER_32_197
*1433 FILLER_32_209
*1434 FILLER_32_221
*1435 FILLER_32_233
*1436 FILLER_32_245
*1437 FILLER_32_251
*1438 FILLER_32_253
*1439 FILLER_32_265
*1440 FILLER_32_27
*1441 FILLER_32_277
*1442 FILLER_32_289
*1443 FILLER_32_29
*1444 FILLER_32_3
*1445 FILLER_32_301
*1446 FILLER_32_307
*1447 FILLER_32_309
*1448 FILLER_32_321
*1449 FILLER_32_333
*1450 FILLER_32_345
*1451 FILLER_32_357
*1452 FILLER_32_363
*1453 FILLER_32_365
*1454 FILLER_32_377
*1455 FILLER_32_389
*1456 FILLER_32_401
*1457 FILLER_32_41
*1458 FILLER_32_413
*1459 FILLER_32_419
*1460 FILLER_32_421
*1461 FILLER_32_433
*1462 FILLER_32_445
*1463 FILLER_32_457
*1464 FILLER_32_469
*1465 FILLER_32_475
*1466 FILLER_32_477
*1467 FILLER_32_489
*1468 FILLER_32_501
*1469 FILLER_32_513
*1470 FILLER_32_53
*1471 FILLER_32_65
*1472 FILLER_32_77
*1473 FILLER_32_83
*1474 FILLER_32_85
*1475 FILLER_32_97
*1476 FILLER_33_105
*1477 FILLER_33_111
*1478 FILLER_33_113
*1479 FILLER_33_125
*1480 FILLER_33_137
*1481 FILLER_33_149
*1482 FILLER_33_15
*1483 FILLER_33_161
*1484 FILLER_33_167
*1485 FILLER_33_169
*1486 FILLER_33_181
*1487 FILLER_33_193
*1488 FILLER_33_205
*1489 FILLER_33_217
*1490 FILLER_33_223
*1491 FILLER_33_225
*1492 FILLER_33_237
*1493 FILLER_33_249
*1494 FILLER_33_261
*1495 FILLER_33_27
*1496 FILLER_33_273
*1497 FILLER_33_279
*1498 FILLER_33_281
*1499 FILLER_33_293
*1500 FILLER_33_3
*1501 FILLER_33_305
*1502 FILLER_33_317
*1503 FILLER_33_329
*1504 FILLER_33_335
*1505 FILLER_33_337
*1506 FILLER_33_349
*1507 FILLER_33_361
*1508 FILLER_33_373
*1509 FILLER_33_385
*1510 FILLER_33_39
*1511 FILLER_33_391
*1512 FILLER_33_393
*1513 FILLER_33_405
*1514 FILLER_33_417
*1515 FILLER_33_429
*1516 FILLER_33_441
*1517 FILLER_33_447
*1518 FILLER_33_449
*1519 FILLER_33_461
*1520 FILLER_33_473
*1521 FILLER_33_485
*1522 FILLER_33_497
*1523 FILLER_33_503
*1524 FILLER_33_505
*1525 FILLER_33_51
*1526 FILLER_33_513
*1527 FILLER_33_55
*1528 FILLER_33_57
*1529 FILLER_33_69
*1530 FILLER_33_81
*1531 FILLER_33_93
*1532 FILLER_34_109
*1533 FILLER_34_121
*1534 FILLER_34_133
*1535 FILLER_34_139
*1536 FILLER_34_141
*1537 FILLER_34_15
*1538 FILLER_34_153
*1539 FILLER_34_165
*1540 FILLER_34_177
*1541 FILLER_34_189
*1542 FILLER_34_195
*1543 FILLER_34_197
*1544 FILLER_34_209
*1545 FILLER_34_221
*1546 FILLER_34_233
*1547 FILLER_34_245
*1548 FILLER_34_251
*1549 FILLER_34_253
*1550 FILLER_34_265
*1551 FILLER_34_27
*1552 FILLER_34_277
*1553 FILLER_34_289
*1554 FILLER_34_29
*1555 FILLER_34_3
*1556 FILLER_34_301
*1557 FILLER_34_307
*1558 FILLER_34_309
*1559 FILLER_34_321
*1560 FILLER_34_333
*1561 FILLER_34_345
*1562 FILLER_34_357
*1563 FILLER_34_363
*1564 FILLER_34_365
*1565 FILLER_34_377
*1566 FILLER_34_389
*1567 FILLER_34_401
*1568 FILLER_34_41
*1569 FILLER_34_413
*1570 FILLER_34_419
*1571 FILLER_34_421
*1572 FILLER_34_433
*1573 FILLER_34_445
*1574 FILLER_34_457